11
Pyridine
N   -1.410111 -0.074646 0.036388
C   -0.777809 1.100591 0.013171
C   0.607066 1.227753 -0.022912
C   1.378604 0.072849 -0.035574
C   0.733478 -1.156987 -0.011699
C   -0.657090 -1.176622 0.023876
H   -1.408306 1.982112 0.023910
H   1.063450 2.207530 -0.040445
H   2.458363 0.129945 -0.063464
H   1.290917 -2.083133 -0.020257
H   -1.190877 -2.119712 0.043175